mini_295_3BLQA_LG1
  PyMOL186          3D                             0

 12 12  0  0  0  0  0  0  0  0999 V2000
   52.8030  -15.0440  -12.9780 C   0  0  0  0  0  0  0  0  0  0  0  0
   55.0010  -14.2640  -12.5980 N   0  0  0  0  0  0  0  0  0  0  0  0
   53.7040  -16.4890  -12.7200 S   0  0  0  0  0  0  0  0  0  0  0  0
   53.6720  -13.9880  -12.8650 C   0  0  0  0  0  0  0  0  0  0  0  0
   53.2520  -12.7150  -13.0200 N   0  0  0  0  0  0  0  0  0  0  0  0
   55.1360  -15.5620  -12.4920 C   0  0  0  0  0  0  0  0  0  0  0  0
   56.3400  -16.1860  -12.2130 N   0  0  0  0  0  0  0  0  0  0  0  0
   51.7360  -14.9800  -13.1930 H   0  0  0  0  0  0  0  0  0  0  0  0
   53.9100  -11.9520  -12.9360 H   0  0  0  0  0  0  0  0  0  0  0  0
   56.3830  -17.1930  -12.1430 H   0  0  0  0  0  0  0  0  0  0  0  0
   57.1760  -15.6340  -12.0790 H   0  0  0  0  0  0  0  0  0  0  0  0
   52.2810  -12.5240  -13.2190 H   0  0  0  0  0  0  0  0  0  0  0  0
  1  4  4  0  0  0  0
  1  8  1  0  0  0  0
  2  4  4  0  0  0  0
  2  6  4  0  0  0  0
  1  3  4  0  0  0  0
  3  6  4  0  0  0  0
  4  5  1  0  0  0  0
  5  9  1  0  0  0  0
  5 12  1  0  0  0  0
  6  7  1  0  0  0  0
  7 10  1  0  0  0  0
  7 11  1  0  0  0  0
M  END
$$$$
