mini_R1_2775670v0_5_0__3BLQ_protein_0
     RDKit          3D

 39 40  0  0  0  0  0  0  0  0999 V2000
   50.3670  -15.0510  -11.8590 C   0  0  0  0  0  0  0  0  0  0  0  0
   49.3250  -15.0520  -14.0380 C   0  0  0  0  0  0  0  0  0  0  0  0
   49.1710  -14.6170  -11.2870 C   0  0  0  0  0  0  0  0  0  0  0  0
   48.1290  -14.6180  -13.4660 C   0  0  0  0  0  0  0  0  0  0  0  0
   50.4440  -15.2680  -13.2350 C   0  0  0  0  0  0  0  0  0  0  0  0
   48.0520  -14.4010  -12.0920 C   0  0  0  0  0  0  0  0  0  0  0  0
   53.0160  -15.5040  -13.1790 C   0  0  0  0  0  0  0  0  0  0  0  0
   53.6890  -14.3390  -12.8730 C   0  0  0  0  0  0  0  0  0  0  0  0
   55.1580  -15.7780  -12.1080 C   0  0  0  0  0  0  0  0  0  0  0  0
   51.6900  -15.7210  -13.8320 C   0  0  0  0  0  0  0  0  0  0  0  0
   44.5280  -10.4170   -8.5860 C   0  0  0  0  0  0  0  0  0  0  0  0
   46.7680  -13.9360  -11.4770 C   0  0  0  0  0  0  0  0  0  0  0  0
   45.8420  -11.0540   -9.0070 C   0  0  0  0  0  0  0  0  0  0  0  0
   46.9340  -12.7170  -10.5640 C   0  0  0  0  0  0  0  0  0  0  0  0
   45.6150  -12.2350   -9.9520 C   0  0  0  0  0  0  0  0  0  0  0  0
   54.9170  -14.4940  -12.2590 N   0  0  0  0  0  0  0  0  0  0  0  0
   53.2120  -13.1000  -13.1410 N   0  0  0  0  0  0  0  0  0  0  0  0
   56.2820  -16.2830  -11.5360 N   0  0  0  0  0  0  0  0  0  0  0  0
   51.6830  -16.3130  -14.9210 O   0  0  0  0  0  0  0  0  0  0  0  0
   53.9500  -16.8540  -12.6830 S   0  0  0  0  0  0  0  0  0  0  0  0
   51.2330  -15.2170  -11.2230 H   0  0  0  0  0  0  0  0  0  0  0  0
   49.3730  -15.2190  -15.1110 H   0  0  0  0  0  0  0  0  0  0  0  0
   49.1200  -14.4510  -10.2150 H   0  0  0  0  0  0  0  0  0  0  0  0
   47.2610  -14.4540  -14.1010 H   0  0  0  0  0  0  0  0  0  0  0  0
   43.8800  -11.1470   -8.0900 H   0  0  0  0  0  0  0  0  0  0  0  0
   44.7120   -9.5960   -7.8860 H   0  0  0  0  0  0  0  0  0  0  0  0
   43.9920  -10.0130   -9.4500 H   0  0  0  0  0  0  0  0  0  0  0  0
   46.0330  -13.7210  -12.2630 H   0  0  0  0  0  0  0  0  0  0  0  0
   46.3510  -14.7660  -10.8910 H   0  0  0  0  0  0  0  0  0  0  0  0
   46.4660  -10.2990   -9.4990 H   0  0  0  0  0  0  0  0  0  0  0  0
   46.3820  -11.3890   -8.1140 H   0  0  0  0  0  0  0  0  0  0  0  0
   47.4060  -11.8930  -11.1130 H   0  0  0  0  0  0  0  0  0  0  0  0
   47.6200  -12.9910   -9.7540 H   0  0  0  0  0  0  0  0  0  0  0  0
   44.9200  -11.9330  -10.7430 H   0  0  0  0  0  0  0  0  0  0  0  0
   45.1430  -13.0580   -9.4020 H   0  0  0  0  0  0  0  0  0  0  0  0
   52.3240  -12.9560  -13.6390 H   0  0  0  0  0  0  0  0  0  0  0  0
   53.7600  -12.2520  -12.9440 H   0  0  0  0  0  0  0  0  0  0  0  0
   57.0470  -15.6770  -11.2230 H   0  0  0  0  0  0  0  0  0  0  0  0
   56.4500  -17.2940  -11.4810 H   0  0  0  0  0  0  0  0  0  0  0  0
  5 10  1  0
  6 12  1  0
  7 10  1  0
  7 20  1  0
  8 16  1  0
  8 17  1  0
  9 18  1  0
  9 20  1  0
 11 13  1  0
 12 14  1  0
 13 15  1  0
 14 15  1  0
  1 21  1  0
  2 22  1  0
  3 23  1  0
  4 24  1  0
 11 25  1  0
 11 26  1  0
 11 27  1  0
 12 28  1  0
 12 29  1  0
 13 30  1  0
 13 31  1  0
 14 32  1  0
 14 33  1  0
 15 34  1  0
 15 35  1  0
 17 36  1  0
 17 37  1  0
 18 38  1  0
 18 39  1  0
  7  8  2  0
  9 16  2  0
 10 19  2  0
  1  3  2  0
  1  5  1  0
  2  4  1  0
  2  5  2  0
  3  6  1  0
  4  6  2  0
M  END
$$$$
