mini_R2_22316140v0_2__3BLQ_protein_0_0
     RDKit          3D

 34 36  0  0  0  0  0  0  0  0999 V2000
   53.0203  -15.4967  -13.1880 C   0  0  0  0  0  0  0  0  0  0  0  0
   53.6957  -14.3322  -12.8848 C   0  0  0  0  0  0  0  0  0  0  0  0
   55.1533  -15.7726  -12.1042 C   0  0  0  0  0  0  0  0  0  0  0  0
   58.4315  -17.9179  -12.8445 C   0  0  0  0  0  0  0  0  0  0  0  0
   57.4389  -17.8955  -10.0773 C   0  0  0  0  0  0  0  0  0  0  0  0
   57.1097  -19.9265  -12.1844 C   0  0  0  0  0  0  0  0  0  0  0  0
   57.0156  -18.4292  -12.5082 C   0  0  0  0  0  0  0  0  0  0  0  0
   59.3941  -18.2227  -11.6792 C   0  0  0  0  0  0  0  0  0  0  0  0
   56.4676  -17.7044  -11.2572 C   0  0  0  0  0  0  0  0  0  0  0  0
   58.6052  -18.8047  -10.4929 C   0  0  0  0  0  0  0  0  0  0  0  0
   54.9196  -14.4894  -12.2631 N   0  0  0  0  0  0  0  0  0  0  0  0
   53.2246  -13.0938  -13.1634 N   0  0  0  0  0  0  0  0  0  0  0  0
   60.1199  -17.0147  -11.2884 N   0  0  0  0  0  0  0  0  0  0  0  0
   56.2725  -16.2799  -11.5219 N   0  0  0  0  0  0  0  0  0  0  0  0
   57.9923  -20.1008  -10.9785 N   0  0  0  0  0  0  0  0  0  0  0  0
   53.9464  -16.8475  -12.6781 S   0  0  0  0  0  0  0  0  0  0  0  0
   52.0591  -15.6214  -13.6672 H   0  0  0  0  0  0  0  0  0  0  0  0
   58.8005  -18.4095  -13.7548 H   0  0  0  0  0  0  0  0  0  0  0  0
   58.3986  -16.8475  -13.0786 H   0  0  0  0  0  0  0  0  0  0  0  0
   57.8263  -16.9365   -9.7111 H   0  0  0  0  0  0  0  0  0  0  0  0
   56.8995  -18.3411   -9.2317 H   0  0  0  0  0  0  0  0  0  0  0  0
   56.1358  -20.3589  -11.9343 H   0  0  0  0  0  0  0  0  0  0  0  0
   57.5635  -20.4985  -13.0003 H   0  0  0  0  0  0  0  0  0  0  0  0
   56.3477  -18.2794  -13.3635 H   0  0  0  0  0  0  0  0  0  0  0  0
   60.1379  -18.9571  -12.0124 H   0  0  0  0  0  0  0  0  0  0  0  0
   55.4921  -18.1277  -10.9900 H   0  0  0  0  0  0  0  0  0  0  0  0
   59.2475  -19.0570   -9.6444 H   0  0  0  0  0  0  0  0  0  0  0  0
   53.7694  -12.2794  -12.9159 H   0  0  0  0  0  0  0  0  0  0  0  0
   52.3296  -12.9831  -13.6175 H   0  0  0  0  0  0  0  0  0  0  0  0
   59.4551  -16.3000  -11.1081 H   0  0  0  0  0  0  0  0  0  0  0  0
   60.6452  -17.2200  -10.4719 H   0  0  0  0  0  0  0  0  0  0  0  0
   57.0237  -15.6623  -11.2481 H   0  0  0  0  0  0  0  0  0  0  0  0
   57.4494  -20.5280  -10.2137 H   0  0  0  0  0  0  0  0  0  0  0  0
   58.7388  -20.7755  -11.1931 H   0  0  0  0  0  0  0  0  0  0  0  0
  1 16  1  0
  2 11  1  0
  2 12  1  0
  3 14  1  0
  3 16  1  0
  4  7  1  0
  4  8  1  0
  5  9  1  0
  5 10  1  0
  6  7  1  0
  6 15  1  0
  7  9  1  0
  8 10  1  0
  8 13  1  0
  9 14  1  0
 10 15  1  0
  1 17  1  0
  4 18  1  0
  4 19  1  0
  5 20  1  0
  5 21  1  0
  6 22  1  0
  6 23  1  0
  7 24  1  0
  8 25  1  0
  9 26  1  0
 10 27  1  0
 12 28  1  0
 12 29  1  0
 13 30  1  0
 13 31  1  0
 14 32  1  0
 15 33  1  0
 15 34  1  0
  1  2  2  0
  3 11  2  0
M  CHG  1  15   1
M  END
$$$$
